3D2V-native-protonated
  RxDock  02152114183D
librxdock.so/0.1.0
 27 28  0  0  0  0  0  0  0  0999 V2000
  -13.2257   37.2271   -1.9739 C   0  0  0  0  0  0
   -6.1718   38.1124   -3.6188 C   0  0  0  0  0  0
   -5.3954   38.9189   -6.4302 C   0  0  0  0  0  0
   -4.6539   39.8790   -7.3564 C   0  0  0  0  0  0
   -4.4209   41.1330   -6.7020 O   0  0  0  0  0  0
   -3.3849   42.1929   -7.3090 P   0  0  0  0  0  0
   -3.8650   44.6363   -8.7382 P   0  0  0  0  0  0
   -7.8224   41.6599   -5.4296 C   0  0  0  0  0  0
  -11.3715   38.5497   -0.9712 N   0  0  0  0  0  0
   -2.1719   42.4852   -6.3068 O   0  5  0  0  0  0
   -4.8691   44.7491   -9.8159 O   0  0  0  0  0  0
   -8.1931   41.3061   -4.1393 C   0  0  0  0  0  0
  -11.8541   37.8998   -2.0419 C   0  0  0  0  0  0
   -2.7602   41.7440   -8.7396 O   0  0  0  0  0  0
   -2.4393   44.1700   -9.3271 O   0  5  0  0  0  0
   -7.6530   40.1599   -3.5548 N   0  3  0  0  0  0
  -11.1454   37.8317   -3.1773 N   0  0  0  0  0  0
   -4.2336   43.5556   -7.6117 O   0  0  0  0  0  0
   -3.6110   46.0327   -8.0701 O   0  0  0  0  0  0
   -6.7509   39.3703   -4.2760 C   0  0  0  0  0  0
   -9.9423   38.4113   -3.2623 C   0  0  0  0  0  0
   -9.2452   38.3383   -4.3966 N   0  0  0  0  0  0
   -6.3750   39.7275   -5.5719 C   0  0  0  0  0  0
   -9.4226   39.0930   -2.1682 C   0  0  0  0  0  0
   -6.9233   40.8731   -6.1375 C   0  0  0  0  0  0
  -10.1884   39.1399   -1.0084 C   0  0  0  0  0  0
   -8.0566   39.7813   -2.1816 C   0  0  0  0  0  0
  1 13  1  0  0  0
  3  4  1  0  0  0
  4  5  1  0  0  0
  5  6  1  0  0  0
  6 10  1  0  0  0
  6 14  2  0  0  0
  6 18  1  0  0  0
  7 11  1  0  0  0
  7 15  1  0  0  0
  7 19  2  0  0  0
  8 25  4  0  0  0
  9 26  4  0  0  0
  8 12  4  0  0  0
  9 13  4  0  0  0
 13 17  4  0  0  0
 12 16  4  0  0  0
 16 20  4  0  0  0
  7 18  1  0  0  0
  2 20  1  0  0  0
 17 21  4  0  0  0
 21 22  1  0  0  0
  3 23  1  0  0  0
 20 23  4  0  0  0
 21 24  4  0  0  0
 24 27  1  0  0  0
 23 25  4  0  0  0
 24 26  4  0  0  0
 16 27  1  0  0  0
M  END
>  <CHROM.0>
-18.88344890,81.52812233,-74.73610317,58.19693665,24.60997636,-127.87780009
-61.14843222

>  <CHROM.1>
35.17103159,165.99372100,-118.28952793,-152.51358373,115.18023022,-149.42695165
25.33183357,79.09239173,-6.44735947,40.97864020,-5.57880515,2.38539549,-0.42388536
2.70575932

>  <Name>
3D2V-native-protonated

>  <RI>
369

>  <Rbt.Current_Directory>
/home/filips/IIMCB/fingernat/jonowe-i-woda

>  <Rbt.Executable>
rbdock/0.1.0

>  <Rbt.Library>
librxdock.so/0.1.0

>  <Rbt.Parameter_File>
/home/filips/miniconda2/envs/docking-rdock/share/rxdock-2013.1.1_148c5bd1-1/data/scripts/dock_solv.prm

>  <Rbt.Receptor>
system.prm

>  <SCORE>
-33.5541

>  <SCORE.INTER>
-35.0121

>  <SCORE.INTER.CONST>
1

>  <SCORE.INTER.POLAR>
-3.63805

>  <SCORE.INTER.ROT>
8

>  <SCORE.INTER.SOLV>
44.5407

>  <SCORE.INTER.VDW>
-34.9948

>  <SCORE.INTER.norm>
-1.29675

>  <SCORE.INTRA>
9.11744

>  <SCORE.INTRA.DIHEDRAL>
5.51123

>  <SCORE.INTRA.DIHEDRAL.0>
8.28871

>  <SCORE.INTRA.POLAR>
0

>  <SCORE.INTRA.POLAR.0>
0

>  <SCORE.INTRA.REPUL>
0

>  <SCORE.INTRA.REPUL.0>
0

>  <SCORE.INTRA.SOLV>
5.88079

>  <SCORE.INTRA.SOLV.lig_0>
-83.647

>  <SCORE.INTRA.VDW>
3.42143

>  <SCORE.INTRA.VDW.0>
-3.29555

>  <SCORE.INTRA.norm>
0.337683

>  <SCORE.RESTR>
0

>  <SCORE.RESTR.CAVITY>
0

>  <SCORE.RESTR.norm>
0

>  <SCORE.SYSTEM>
-7.65938

>  <SCORE.SYSTEM.CONST>
0

>  <SCORE.SYSTEM.DIHEDRAL>
20.5913

>  <SCORE.SYSTEM.POLAR>
-6.86001

>  <SCORE.SYSTEM.SOLV>
-0.0314197

>  <SCORE.SYSTEM.VDW>
10.9072

>  <SCORE.SYSTEM.norm>
-0.283681

>  <SCORE.heavy>
27

>  <SCORE.norm>
-1.24274

$$$$
3D2V-native-protonated
  RxDock  02152114193D
librxdock.so/0.1.0
 27 28  0  0  0  0  0  0  0  0999 V2000
  -13.1041   37.5019   -2.3197 C   0  0  0  0  0  0
   -5.5933   38.4433   -4.4688 C   0  0  0  0  0  0
   -5.1359   40.5551   -6.5874 C   0  0  0  0  0  0
   -5.5122   41.5233   -7.7055 C   0  0  0  0  0  0
   -4.5507   41.4667   -8.7673 O   0  0  0  0  0  0
   -4.4223   42.6669   -9.8201 P   0  0  0  0  0  0
   -3.0981   45.1149   -9.1155 P   0  0  0  0  0  0
   -7.7618   42.1685   -4.3723 C   0  0  0  0  0  0
  -10.9525   37.9651   -3.4809 N   0  0  0  0  0  0
   -4.2818   42.1325  -11.3220 O   0  5  0  0  0  0
   -3.9042   45.5336   -7.9505 O   0  0  0  0  0  0
   -7.9878   41.2116   -3.3921 C   0  0  0  0  0  0
  -11.6269   37.8972   -2.3224 C   0  0  0  0  0  0
   -5.6664   43.7101   -9.7702 O   0  0  0  0  0  0
   -3.6582   45.7813  -10.4717 O   0  5  0  0  0  0
   -7.2805   40.0092   -3.4238 N   0  3  0  0  0  0
  -11.0192   38.1731   -1.1602 N   0  0  0  0  0  0
   -3.1082   43.5335   -9.3833 O   0  0  0  0  0  0
   -1.6193   45.6193   -8.9754 O   0  0  0  0  0  0
   -6.3573   39.7721   -4.4480 C   0  0  0  0  0  0
   -9.7277   38.5221   -1.1356 C   0  0  0  0  0  0
   -9.1321   38.7942    0.0259 N   0  0  0  0  0  0
   -6.1270   40.7351   -5.4318 C   0  0  0  0  0  0
   -9.0071   38.5962   -2.3218 C   0  0  0  0  0  0
   -6.8409   41.9271   -5.3833 C   0  0  0  0  0  0
   -9.6741   38.3033   -3.5064 C   0  0  0  0  0  0
   -7.5296   38.9879   -2.3815 C   0  0  0  0  0  0
  1 13  1  0  0  0
  3  4  1  0  0  0
  4  5  1  0  0  0
  5  6  1  0  0  0
  6 10  1  0  0  0
  6 14  2  0  0  0
  6 18  1  0  0  0
  7 11  1  0  0  0
  7 15  1  0  0  0
  7 19  2  0  0  0
  8 25  4  0  0  0
  9 26  4  0  0  0
  8 12  4  0  0  0
  9 13  4  0  0  0
 13 17  4  0  0  0
 12 16  4  0  0  0
 16 20  4  0  0  0
  7 18  1  0  0  0
  2 20  1  0  0  0
 17 21  4  0  0  0
 21 22  1  0  0  0
  3 23  1  0  0  0
 20 23  4  0  0  0
 21 24  4  0  0  0
 24 27  1  0  0  0
 23 25  4  0  0  0
 24 26  4  0  0  0
 16 27  1  0  0  0
M  END
>  <CHROM.0>
-1.74058701,105.77669393,-81.72979632,63.24057344,54.45184533,-85.09405267
-172.05825145

>  <CHROM.1>
175.47278225,-160.25441383,-136.28008474,-126.36027347,65.43386896,159.20671174
-132.32596666,56.16537303,-6.42928102,41.36070031,-6.06845524,2.47232524
0.76362146,1.51166047

>  <Name>
3D2V-native-protonated

>  <RI>
369

>  <Rbt.Current_Directory>
/home/filips/IIMCB/fingernat/jonowe-i-woda

>  <Rbt.Executable>
rbdock/0.1.0

>  <Rbt.Library>
librxdock.so/0.1.0

>  <Rbt.Parameter_File>
/home/filips/miniconda2/envs/docking-rdock/share/rxdock-2013.1.1_148c5bd1-1/data/scripts/dock_solv.prm

>  <Rbt.Receptor>
system.prm

>  <SCORE>
-8.91605

>  <SCORE.INTER>
-7.55318

>  <SCORE.INTER.CONST>
1

>  <SCORE.INTER.POLAR>
-6.82284

>  <SCORE.INTER.ROT>
8

>  <SCORE.INTER.SOLV>
52.3637

>  <SCORE.INTER.VDW>
-8.68056

>  <SCORE.INTER.norm>
-0.279747

>  <SCORE.INTRA>
3.55801

>  <SCORE.INTRA.DIHEDRAL>
3.16569

>  <SCORE.INTRA.DIHEDRAL.0>
8.28871

>  <SCORE.INTRA.POLAR>
0

>  <SCORE.INTRA.POLAR.0>
0

>  <SCORE.INTRA.REPUL>
0

>  <SCORE.INTRA.REPUL.0>
0

>  <SCORE.INTRA.SOLV>
-0.612069

>  <SCORE.INTRA.SOLV.lig_0>
-83.647

>  <SCORE.INTRA.VDW>
2.2812

>  <SCORE.INTRA.VDW.0>
-3.29555

>  <SCORE.INTRA.norm>
0.131778

>  <SCORE.RESTR>
0.193764

>  <SCORE.RESTR.CAVITY>
0.193764

>  <SCORE.RESTR.norm>
0.00717643

>  <SCORE.SYSTEM>
-5.11464

>  <SCORE.SYSTEM.CONST>
0

>  <SCORE.SYSTEM.DIHEDRAL>
18.9907

>  <SCORE.SYSTEM.POLAR>
-6.55459

>  <SCORE.SYSTEM.SOLV>
-0.376774

>  <SCORE.SYSTEM.VDW>
12.2343

>  <SCORE.SYSTEM.norm>
-0.189431

>  <SCORE.heavy>
27

>  <SCORE.norm>
-0.330224

$$$$
3D2V-native-protonated
  RxDock  02152114193D
librxdock.so/0.1.0
 27 28  0  0  0  0  0  0  0  0999 V2000
  -13.3389   37.0708   -2.3955 C   0  0  0  0  0  0
   -7.4306   41.7685   -4.2885 C   0  0  0  0  0  0
   -6.0504   41.1220   -6.9027 C   0  0  0  0  0  0
   -4.6685   41.6324   -6.5038 C   0  0  0  0  0  0
   -4.3165   42.7900   -7.2727 O   0  0  0  0  0  0
   -3.8480   42.6482   -8.7976 P   0  0  0  0  0  0
   -3.6968   45.2792   -9.9370 P   0  0  0  0  0  0
   -6.5596   37.6871   -5.3707 C   0  0  0  0  0  0
  -11.2711   37.8097   -3.5662 N   0  0  0  0  0  0
   -2.2536   42.6220   -8.9336 O   0  5  0  0  0  0
   -4.4881   46.2565  -10.7123 O   0  0  0  0  0  0
   -7.1916   37.9627   -4.1657 C   0  0  0  0  0  0
  -11.9629   37.7374   -2.4183 C   0  0  0  0  0  0
   -4.4391   41.3291   -9.5385 O   0  0  0  0  0  0
   -2.3850   44.8236  -10.7545 O   0  5  0  0  0  0
   -7.4763   39.2846   -3.8211 N   0  3  0  0  0  0
  -11.4608   38.2452   -1.2841 N   0  0  0  0  0  0
   -4.4818   43.9212   -9.6018 O   0  0  0  0  0  0
   -3.1655   45.9256   -8.6100 O   0  0  0  0  0  0
   -7.1137   40.3225   -4.6864 C   0  0  0  0  0  0
  -10.2594   38.8342   -1.2775 C   0  0  0  0  0  0
   -9.7685   39.3359   -0.1439 N   0  0  0  0  0  0
   -6.4816   40.0458   -5.8996 C   0  0  0  0  0  0
   -9.5224   38.9184   -2.4530 C   0  0  0  0  0  0
   -6.2065   38.7226   -6.2259 C   0  0  0  0  0  0
  -10.0786   38.3804   -3.6083 C   0  0  0  0  0  0
   -8.1433   39.5756   -2.5318 C   0  0  0  0  0  0
  1 13  1  0  0  0
  3  4  1  0  0  0
  4  5  1  0  0  0
  5  6  1  0  0  0
  6 10  1  0  0  0
  6 14  2  0  0  0
  6 18  1  0  0  0
  7 11  1  0  0  0
  7 15  1  0  0  0
  7 19  2  0  0  0
  8 25  4  0  0  0
  9 26  4  0  0  0
  8 12  4  0  0  0
  9 13  4  0  0  0
 13 17  4  0  0  0
 12 16  4  0  0  0
 16 20  4  0  0  0
  7 18  1  0  0  0
  2 20  1  0  0  0
 17 21  4  0  0  0
 21 22  1  0  0  0
  3 23  1  0  0  0
 20 23  4  0  0  0
 21 24  4  0  0  0
 24 27  1  0  0  0
 23 25  4  0  0  0
 24 26  4  0  0  0
 16 27  1  0  0  0
M  END
>  <CHROM.0>
1.72602231,89.10092525,32.89906117,-151.09310511,61.35021760,-78.00572291
-63.65564293

>  <CHROM.1>
-170.36291987,-76.07149980,-96.19313905,97.55201671,178.19915002,85.57548569
168.44812199,-61.10176018,-6.54349936,41.19956419,-6.11431810,2.45404017
-0.69824970,2.93109632

>  <Name>
3D2V-native-protonated

>  <RI>
369

>  <Rbt.Current_Directory>
/home/filips/IIMCB/fingernat/jonowe-i-woda

>  <Rbt.Executable>
rbdock/0.1.0

>  <Rbt.Library>
librxdock.so/0.1.0

>  <Rbt.Parameter_File>
/home/filips/miniconda2/envs/docking-rdock/share/rxdock-2013.1.1_148c5bd1-1/data/scripts/dock_solv.prm

>  <Rbt.Receptor>
system.prm

>  <SCORE>
-28.3153

>  <SCORE.INTER>
-52.7166

>  <SCORE.INTER.CONST>
1

>  <SCORE.INTER.POLAR>
-7.8077

>  <SCORE.INTER.ROT>
8

>  <SCORE.INTER.SOLV>
47.2486

>  <SCORE.INTER.VDW>
-33.8016

>  <SCORE.INTER.norm>
-1.95247

>  <SCORE.INTRA>
1.91308

>  <SCORE.INTRA.DIHEDRAL>
1.57843

>  <SCORE.INTRA.DIHEDRAL.0>
8.28871

>  <SCORE.INTRA.POLAR>
0

>  <SCORE.INTRA.POLAR.0>
0

>  <SCORE.INTRA.REPUL>
0

>  <SCORE.INTRA.REPUL.0>
0

>  <SCORE.INTRA.SOLV>
1.2014

>  <SCORE.INTRA.SOLV.lig_0>
-83.647

>  <SCORE.INTRA.VDW>
0.523161

>  <SCORE.INTRA.VDW.0>
-3.29555

>  <SCORE.INTRA.norm>
0.0708547

>  <SCORE.RESTR>
0

>  <SCORE.RESTR.CAVITY>
0

>  <SCORE.RESTR.norm>
0

>  <SCORE.SYSTEM>
22.4883

>  <SCORE.SYSTEM.CONST>
0

>  <SCORE.SYSTEM.DIHEDRAL>
18.9534

>  <SCORE.SYSTEM.POLAR>
-5.46979

>  <SCORE.SYSTEM.SOLV>
-0.312878

>  <SCORE.SYSTEM.VDW>
27.0113

>  <SCORE.SYSTEM.norm>
0.832898

>  <SCORE.heavy>
27

>  <SCORE.norm>
-1.04871

$$$$
3D2V-native-protonated
  RxDock  02152114193D
librxdock.so/0.1.0
 27 28  0  0  0  0  0  0  0  0999 V2000
  -12.9501   37.4622   -2.5714 C   0  0  0  0  0  0
   -8.0974   41.6756   -4.1829 C   0  0  0  0  0  0
   -7.0397   41.8075   -7.0151 C   0  0  0  0  0  0
   -5.8126   41.9986   -7.9022 C   0  0  0  0  0  0
   -4.6442   42.2307   -7.1047 O   0  0  0  0  0  0
   -3.2361   42.5611   -7.7927 P   0  0  0  0  0  0
   -3.6063   44.8300   -9.5126 P   0  0  0  0  0  0
   -5.7571   38.4432   -5.8147 C   0  0  0  0  0  0
  -10.7587   37.8699   -3.6776 N   0  0  0  0  0  0
   -2.0032   42.1555   -6.8564 O   0  5  0  0  0  0
   -4.9021   44.3833  -10.0636 O   0  0  0  0  0  0
   -6.2314   38.3641   -4.5122 C   0  0  0  0  0  0
  -11.5043   37.9600   -2.5652 C   0  0  0  0  0  0
   -3.0329   41.8408   -9.2343 O   0  0  0  0  0  0
   -2.3957   44.4414  -10.5028 O   0  5  0  0  0  0
   -6.9926   39.4101   -3.9892 N   0  3  0  0  0  0
  -10.9955   38.4841   -1.4415 N   0  0  0  0  0  0
   -3.2316   44.1653   -8.1018 O   0  0  0  0  0  0
   -3.5669   46.3934   -9.3890 O   0  0  0  0  0  0
   -7.2634   40.5346   -4.7764 C   0  0  0  0  0  0
   -9.7334   38.9275   -1.4102 C   0  0  0  0  0  0
   -9.2363   39.4469   -0.2872 N   0  0  0  0  0  0
   -6.7899   40.6131   -6.0871 C   0  0  0  0  0  0
   -8.9403   38.8419   -2.5485 C   0  0  0  0  0  0
   -6.0335   39.5609   -6.5909 C   0  0  0  0  0  0
   -9.5055   38.2928   -3.6942 C   0  0  0  0  0  0
   -7.4901   39.3261   -2.5974 C   0  0  0  0  0  0
  1 13  1  0  0  0
  3  4  1  0  0  0
  4  5  1  0  0  0
  5  6  1  0  0  0
  6 10  1  0  0  0
  6 14  2  0  0  0
  6 18  1  0  0  0
  7 11  1  0  0  0
  7 15  1  0  0  0
  7 19  2  0  0  0
  8 25  4  0  0  0
  9 26  4  0  0  0
  8 12  4  0  0  0
  9 13  4  0  0  0
 13 17  4  0  0  0
 12 16  4  0  0  0
 16 20  4  0  0  0
  7 18  1  0  0  0
  2 20  1  0  0  0
 17 21  4  0  0  0
 21 22  1  0  0  0
  3 23  1  0  0  0
 20 23  4  0  0  0
 21 24  4  0  0  0
 24 27  1  0  0  0
 23 25  4  0  0  0
 24 26  4  0  0  0
 16 27  1  0  0  0
M  END
>  <CHROM.0>
-2.20463870,139.87131741,-169.06320758,55.70418692,57.43572674,-45.43190550
179.28049395

>  <CHROM.1>
-59.10578152,-175.85577922,-154.79203465,-96.87281760,51.86331230,145.42259590
-166.63565885,-97.89238127,-6.30890366,41.22117675,-5.97548376,2.25087627
-0.20328654,2.42773866

>  <Name>
3D2V-native-protonated

>  <RI>
369

>  <Rbt.Current_Directory>
/home/filips/IIMCB/fingernat/jonowe-i-woda

>  <Rbt.Executable>
rbdock/0.1.0

>  <Rbt.Library>
librxdock.so/0.1.0

>  <Rbt.Parameter_File>
/home/filips/miniconda2/envs/docking-rdock/share/rxdock-2013.1.1_148c5bd1-1/data/scripts/dock_solv.prm

>  <Rbt.Receptor>
system.prm

>  <SCORE>
-70.2919

>  <SCORE.INTER>
-55.1421

>  <SCORE.INTER.CONST>
1

>  <SCORE.INTER.POLAR>
-7.16738

>  <SCORE.INTER.ROT>
8

>  <SCORE.INTER.SOLV>
52.2949

>  <SCORE.INTER.VDW>
-39.2351

>  <SCORE.INTER.norm>
-2.0423

>  <SCORE.INTRA>
0.124485

>  <SCORE.INTRA.DIHEDRAL>
-0.299513

>  <SCORE.INTRA.DIHEDRAL.0>
8.28871

>  <SCORE.INTRA.POLAR>
0

>  <SCORE.INTRA.POLAR.0>
0

>  <SCORE.INTRA.REPUL>
0

>  <SCORE.INTRA.REPUL.0>
0

>  <SCORE.INTRA.SOLV>
-1.20443

>  <SCORE.INTRA.SOLV.lig_0>
-83.647

>  <SCORE.INTRA.VDW>
0.876458

>  <SCORE.INTRA.VDW.0>
-3.29555

>  <SCORE.INTRA.norm>
0.00461057

>  <SCORE.RESTR>
0

>  <SCORE.RESTR.CAVITY>
0

>  <SCORE.RESTR.norm>
0

>  <SCORE.SYSTEM>
-15.2743

>  <SCORE.SYSTEM.CONST>
0

>  <SCORE.SYSTEM.DIHEDRAL>
14.796

>  <SCORE.SYSTEM.POLAR>
-8.60401

>  <SCORE.SYSTEM.SOLV>
-0.333707

>  <SCORE.SYSTEM.VDW>
13.6764

>  <SCORE.SYSTEM.norm>
-0.565716

>  <SCORE.heavy>
27

>  <SCORE.norm>
-2.60341

$$$$
3D2V-native-protonated
  RxDock  02152114193D
librxdock.so/0.1.0
 27 28  0  0  0  0  0  0  0  0999 V2000
  -13.3557   37.4936   -1.9679 C   0  0  0  0  0  0
   -5.5833   38.7020   -4.5320 C   0  0  0  0  0  0
   -5.2734   41.0704   -6.3900 C   0  0  0  0  0  0
   -5.7284   42.0273   -7.4884 C   0  0  0  0  0  0
   -5.1369   41.6717   -8.7449 O   0  0  0  0  0  0
   -4.0937   42.6509   -9.4647 P   0  0  0  0  0  0
   -3.5311   45.4587   -9.2583 P   0  0  0  0  0  0
   -8.3048   42.0393   -4.3220 C   0  0  0  0  0  0
  -11.2847   37.7189   -3.3289 N   0  0  0  0  0  0
   -2.5806   42.1775   -9.2467 O   0  5  0  0  0  0
   -2.0623   45.3159   -9.1900 O   0  0  0  0  0  0
   -8.4655   40.9614   -3.4620 C   0  0  0  0  0  0
  -11.8715   37.8255   -2.1265 C   0  0  0  0  0  0
   -4.3475   42.8095  -11.0612 O   0  0  0  0  0  0
   -4.0439   46.6121   -8.2565 O   0  5  0  0  0  0
   -7.5797   39.8853   -3.5296 N   0  3  0  0  0  0
  -11.1696   38.2217   -1.0556 N   0  0  0  0  0  0
   -4.3368   44.1383   -8.8342 O   0  0  0  0  0  0
   -3.9768   45.9141  -10.6918 O   0  0  0  0  0  0
   -6.5435   39.8952   -4.4696 C   0  0  0  0  0  0
   -9.8697   38.5186   -1.1680 C   0  0  0  0  0  0
   -9.1801   38.9114   -0.0966 N   0  0  0  0  0  0
   -6.3793   40.9803   -5.3321 C   0  0  0  0  0  0
   -9.2388   38.4128   -2.4019 C   0  0  0  0  0  0
   -7.2714   42.0435   -5.2496 C   0  0  0  0  0  0
  -10.0020   37.9994   -3.4884 C   0  0  0  0  0  0
   -7.7586   38.7339   -2.6163 C   0  0  0  0  0  0
  1 13  1  0  0  0
  3  4  1  0  0  0
  4  5  1  0  0  0
  5  6  1  0  0  0
  6 10  1  0  0  0
  6 14  2  0  0  0
  6 18  1  0  0  0
  7 11  1  0  0  0
  7 15  1  0  0  0
  7 19  2  0  0  0
  8 25  4  0  0  0
  9 26  4  0  0  0
  8 12  4  0  0  0
  9 13  4  0  0  0
 13 17  4  0  0  0
 12 16  4  0  0  0
 16 20  4  0  0  0
  7 18  1  0  0  0
  2 20  1  0  0  0
 17 21  4  0  0  0
 21 22  1  0  0  0
  3 23  1  0  0  0
 20 23  4  0  0  0
 21 24  4  0  0  0
 24 27  1  0  0  0
 23 25  4  0  0  0
 24 26  4  0  0  0
 16 27  1  0  0  0
M  END
>  <CHROM.0>
0.67254365,178.79108775,-169.15586612,-35.56973931,61.55169743,-60.31462652
-162.01658845

>  <CHROM.1>
-150.97004121,-114.42162725,101.07029774,-179.37042093,-52.89395488,156.08809832
-116.10660360,37.75160740,-6.56543985,41.43405708,-6.00212248,2.61531542
-0.84503826,-3.11936816

>  <Name>
3D2V-native-protonated

>  <RI>
369

>  <Rbt.Current_Directory>
/home/filips/IIMCB/fingernat/jonowe-i-woda

>  <Rbt.Executable>
rbdock/0.1.0

>  <Rbt.Library>
librxdock.so/0.1.0

>  <Rbt.Parameter_File>
/home/filips/miniconda2/envs/docking-rdock/share/rxdock-2013.1.1_148c5bd1-1/data/scripts/dock_solv.prm

>  <Rbt.Receptor>
system.prm

>  <SCORE>
-12.8157

>  <SCORE.INTER>
-23.6121

>  <SCORE.INTER.CONST>
1

>  <SCORE.INTER.POLAR>
-6.66507

>  <SCORE.INTER.ROT>
8

>  <SCORE.INTER.SOLV>
49.7218

>  <SCORE.INTER.VDW>
-19.0318

>  <SCORE.INTER.norm>
-0.87452

>  <SCORE.INTRA>
6.17415

>  <SCORE.INTRA.DIHEDRAL>
8.59806

>  <SCORE.INTRA.DIHEDRAL.0>
8.28871

>  <SCORE.INTRA.POLAR>
0

>  <SCORE.INTRA.POLAR.0>
0

>  <SCORE.INTRA.REPUL>
0

>  <SCORE.INTRA.REPUL.0>
0

>  <SCORE.INTRA.SOLV>
-0.925508

>  <SCORE.INTRA.SOLV.lig_0>
-83.647

>  <SCORE.INTRA.VDW>
2.33787

>  <SCORE.INTRA.VDW.0>
-3.29555

>  <SCORE.INTRA.norm>
0.228672

>  <SCORE.RESTR>
0.167972

>  <SCORE.RESTR.CAVITY>
0.167972

>  <SCORE.RESTR.norm>
0.00622118

>  <SCORE.SYSTEM>
4.45423

>  <SCORE.SYSTEM.CONST>
0

>  <SCORE.SYSTEM.DIHEDRAL>
12.5726

>  <SCORE.SYSTEM.POLAR>
-7.41821

>  <SCORE.SYSTEM.SOLV>
-0.152512

>  <SCORE.SYSTEM.VDW>
23.5568

>  <SCORE.SYSTEM.norm>
0.164972

>  <SCORE.heavy>
27

>  <SCORE.norm>
-0.474656

$$$$
3D2V-native-protonated
  RxDock  02152114193D
librxdock.so/0.1.0
 27 28  0  0  0  0  0  0  0  0999 V2000
  -12.7793   37.5589   -1.8352 C   0  0  0  0  0  0
   -8.3381   41.2747   -4.0284 C   0  0  0  0  0  0
   -7.4360   41.5159   -6.9068 C   0  0  0  0  0  0
   -6.2968   42.5041   -7.1410 C   0  0  0  0  0  0
   -5.2672   41.9076   -7.9403 O   0  0  0  0  0  0
   -3.9305   42.7173   -8.2907 P   0  0  0  0  0  0
   -3.4750   45.1490   -9.7476 P   0  0  0  0  0  0
   -5.5227   38.4689   -5.6985 C   0  0  0  0  0  0
  -10.6247   38.4393   -0.9553 N   0  0  0  0  0  0
   -3.2837   43.3943   -6.9928 O   0  5  0  0  0  0
   -2.9174   45.8396   -8.5667 O   0  0  0  0  0  0
   -5.9223   38.3421   -4.3750 C   0  0  0  0  0  0
  -11.3158   37.9680   -2.0049 C   0  0  0  0  0  0
   -2.7901   41.8091   -9.0071 O   0  0  0  0  0  0
   -4.4694   46.1188  -10.5645 O   0  5  0  0  0  0
   -6.8374   39.2492   -3.8394 N   0  3  0  0  0  0
  -10.7365   37.8499   -3.2077 N   0  0  0  0  0  0
   -4.3446   43.8484   -9.3943 O   0  0  0  0  0  0
   -2.3346   44.7665  -10.7547 O   0  0  0  0  0  0
   -7.3372   40.2853   -4.6358 C   0  0  0  0  0  0
   -9.4570   38.2003   -3.3823 C   0  0  0  0  0  0
   -8.8900   38.0795   -4.5830 N   0  0  0  0  0  0
   -6.9387   40.4112   -5.9675 C   0  0  0  0  0  0
   -8.7214   38.6942   -2.3114 C   0  0  0  0  0  0
   -6.0264   39.4977   -6.4836 C   0  0  0  0  0  0
   -9.3583   38.8005   -1.0798 C   0  0  0  0  0  0
   -7.2554   39.1157   -2.4255 C   0  0  0  0  0  0
  1 13  1  0  0  0
  3  4  1  0  0  0
  4  5  1  0  0  0
  5  6  1  0  0  0
  6 10  1  0  0  0
  6 14  2  0  0  0
  6 18  1  0  0  0
  7 11  1  0  0  0
  7 15  1  0  0  0
  7 19  2  0  0  0
  8 25  4  0  0  0
  9 26  4  0  0  0
  8 12  4  0  0  0
  9 13  4  0  0  0
 13 17  4  0  0  0
 12 16  4  0  0  0
 16 20  4  0  0  0
  7 18  1  0  0  0
  2 20  1  0  0  0
 17 21  4  0  0  0
 21 22  1  0  0  0
  3 23  1  0  0  0
 20 23  4  0  0  0
 21 24  4  0  0  0
 24 27  1  0  0  0
 23 25  4  0  0  0
 24 26  4  0  0  0
 16 27  1  0  0  0
M  END
>  <CHROM.0>
-34.63559777,-81.84699814,-80.47085047,64.46280192,-175.07643668,-44.08861516
174.58407484

>  <CHROM.1>
70.00314802,-177.84949208,48.43136601,161.93501191,-43.21772005,107.79300030
14.02771528,-111.54476538,-6.37518265,41.24704247,-6.08791109,2.23742068
-0.39782620,2.59030224

>  <Name>
3D2V-native-protonated

>  <RI>
369

>  <Rbt.Current_Directory>
/home/filips/IIMCB/fingernat/jonowe-i-woda

>  <Rbt.Executable>
rbdock/0.1.0

>  <Rbt.Library>
librxdock.so/0.1.0

>  <Rbt.Parameter_File>
/home/filips/miniconda2/envs/docking-rdock/share/rxdock-2013.1.1_148c5bd1-1/data/scripts/dock_solv.prm

>  <Rbt.Receptor>
system.prm

>  <SCORE>
-86.0796

>  <SCORE.INTER>
-55.3695

>  <SCORE.INTER.CONST>
1

>  <SCORE.INTER.POLAR>
-7.21198

>  <SCORE.INTER.ROT>
8

>  <SCORE.INTER.SOLV>
43.7007

>  <SCORE.INTER.VDW>
-36.3733

>  <SCORE.INTER.norm>
-2.05072

>  <SCORE.INTRA>
1.97327

>  <SCORE.INTRA.DIHEDRAL>
-1.54547

>  <SCORE.INTRA.DIHEDRAL.0>
8.28871

>  <SCORE.INTRA.POLAR>
0

>  <SCORE.INTRA.POLAR.0>
0

>  <SCORE.INTRA.REPUL>
0

>  <SCORE.INTRA.REPUL.0>
0

>  <SCORE.INTRA.SOLV>
4.10279

>  <SCORE.INTRA.SOLV.lig_0>
-83.647

>  <SCORE.INTRA.VDW>
0.694615

>  <SCORE.INTRA.VDW.0>
-3.29555

>  <SCORE.INTRA.norm>
0.0730842

>  <SCORE.RESTR>
0

>  <SCORE.RESTR.CAVITY>
0

>  <SCORE.RESTR.norm>
0

>  <SCORE.SYSTEM>
-32.6834

>  <SCORE.SYSTEM.CONST>
0

>  <SCORE.SYSTEM.DIHEDRAL>
9.14302

>  <SCORE.SYSTEM.POLAR>
-6.43337

>  <SCORE.SYSTEM.SOLV>
-0.0619527

>  <SCORE.SYSTEM.VDW>
-3.37139

>  <SCORE.SYSTEM.norm>
-1.2105

>  <SCORE.heavy>
27

>  <SCORE.norm>
-3.18813

$$$$
3D2V-native-protonated
  RxDock  02152114193D
librxdock.so/0.1.0
 27 28  0  0  0  0  0  0  0  0999 V2000
  -12.9025   37.8055   -1.9824 C   0  0  0  0  0  0
   -5.6942   38.6102   -5.0350 C   0  0  0  0  0  0
   -5.2197   41.0911   -6.7015 C   0  0  0  0  0  0
   -6.1906   41.1852   -7.8753 C   0  0  0  0  0  0
   -5.9355   42.3651   -8.6483 O   0  0  0  0  0  0
   -4.4774   42.6535   -9.2448 P   0  0  0  0  0  0
   -3.2161   45.2002   -9.6526 P   0  0  0  0  0  0
   -7.3083   42.4205   -3.8247 C   0  0  0  0  0  0
  -10.6677   38.4713   -1.1138 N   0  0  0  0  0  0
   -3.4002   41.5860   -8.7335 O   0  5  0  0  0  0
   -3.5136   46.6190   -9.3681 O   0  0  0  0  0  0
   -7.5392   41.2937   -3.0472 C   0  0  0  0  0  0
  -11.4094   38.0823   -2.1626 C   0  0  0  0  0  0
   -4.4329   42.6768  -10.8683 O   0  0  0  0  0  0
   -3.5516   44.8388  -11.1868 O   0  5  0  0  0  0
   -7.0110   40.0632   -3.4396 N   0  3  0  0  0  0
  -10.8556   37.9319   -3.3738 N   0  0  0  0  0  0
   -4.0705   44.1644   -8.7752 O   0  0  0  0  0  0
   -1.6850   44.9092   -9.4741 O   0  0  0  0  0  0
   -6.2623   39.9714   -4.6179 C   0  0  0  0  0  0
   -9.5512   38.1671   -3.5577 C   0  0  0  0  0  0
   -9.0098   38.0150   -4.7666 N   0  0  0  0  0  0
   -6.0268   41.1045   -5.3981 C   0  0  0  0  0  0
   -8.7629   38.5741   -2.4877 C   0  0  0  0  0  0
   -6.5608   42.3219   -4.9909 C   0  0  0  0  0  0
   -9.3750   38.7176   -1.2474 C   0  0  0  0  0  0
   -7.2657   38.8622   -2.6122 C   0  0  0  0  0  0
  1 13  1  0  0  0
  3  4  1  0  0  0
  4  5  1  0  0  0
  5  6  1  0  0  0
  6 10  1  0  0  0
  6 14  2  0  0  0
  6 18  1  0  0  0
  7 11  1  0  0  0
  7 15  1  0  0  0
  7 19  2  0  0  0
  8 25  4  0  0  0
  9 26  4  0  0  0
  8 12  4  0  0  0
  9 13  4  0  0  0
 13 17  4  0  0  0
 12 16  4  0  0  0
 16 20  4  0  0  0
  7 18  1  0  0  0
  2 20  1  0  0  0
 17 21  4  0  0  0
 21 22  1  0  0  0
  3 23  1  0  0  0
 20 23  4  0  0  0
 21 24  4  0  0  0
 24 27  1  0  0  0
 23 25  4  0  0  0
 24 26  4  0  0  0
 16 27  1  0  0  0
M  END
>  <CHROM.0>
-175.33471049,174.43157116,-73.77520947,57.87426107,-159.97226031,-47.60131173
-27.14398997

>  <CHROM.1>
119.19645833,54.97533154,-6.25348467,-144.69433012,151.84250755,104.36041909
67.66792604,59.72351358,-6.35144125,41.39054103,-6.23794414,2.82839170,0.93332755
1.06133102

>  <Name>
3D2V-native-protonated

>  <RI>
369

>  <Rbt.Current_Directory>
/home/filips/IIMCB/fingernat/jonowe-i-woda

>  <Rbt.Executable>
rbdock/0.1.0

>  <Rbt.Library>
librxdock.so/0.1.0

>  <Rbt.Parameter_File>
/home/filips/miniconda2/envs/docking-rdock/share/rxdock-2013.1.1_148c5bd1-1/data/scripts/dock_solv.prm

>  <Rbt.Receptor>
system.prm

>  <SCORE>
-53.754

>  <SCORE.INTER>
-46.8705

>  <SCORE.INTER.CONST>
1

>  <SCORE.INTER.POLAR>
-7.95878

>  <SCORE.INTER.ROT>
8

>  <SCORE.INTER.SOLV>
43.784

>  <SCORE.INTER.VDW>
-28.2457

>  <SCORE.INTER.norm>
-1.73594

>  <SCORE.INTRA>
8.83328

>  <SCORE.INTRA.DIHEDRAL>
7.35786

>  <SCORE.INTRA.DIHEDRAL.0>
8.28871

>  <SCORE.INTRA.POLAR>
0

>  <SCORE.INTRA.POLAR.0>
0

>  <SCORE.INTRA.REPUL>
0

>  <SCORE.INTRA.REPUL.0>
0

>  <SCORE.INTRA.SOLV>
4.97424

>  <SCORE.INTRA.SOLV.lig_0>
-83.647

>  <SCORE.INTRA.VDW>
2.66723

>  <SCORE.INTRA.VDW.0>
-3.29555

>  <SCORE.INTRA.norm>
0.327159

>  <SCORE.RESTR>
0

>  <SCORE.RESTR.CAVITY>
0

>  <SCORE.RESTR.norm>
0

>  <SCORE.SYSTEM>
-15.7168

>  <SCORE.SYSTEM.CONST>
0

>  <SCORE.SYSTEM.DIHEDRAL>
8.77211

>  <SCORE.SYSTEM.POLAR>
-6.83626

>  <SCORE.SYSTEM.SOLV>
-0.00257146

>  <SCORE.SYSTEM.VDW>
9.38652

>  <SCORE.SYSTEM.norm>
-0.582102

>  <SCORE.heavy>
27

>  <SCORE.norm>
-1.99089

$$$$
3D2V-native-protonated
  RxDock  02152114193D
librxdock.so/0.1.0
 27 28  0  0  0  0  0  0  0  0999 V2000
  -13.5811   37.6338   -1.5609 C   0  0  0  0  0  0
   -6.1153   38.4552   -5.7617 C   0  0  0  0  0  0
   -5.4181   41.3194   -6.4455 C   0  0  0  0  0  0
   -5.6056   42.7658   -6.8948 C   0  0  0  0  0  0
   -4.3401   43.3709   -7.1906 O   0  0  0  0  0  0
   -3.2560   42.6046   -8.0864 P   0  0  0  0  0  0
   -3.3074   45.1365   -9.4389 P   0  0  0  0  0  0
   -8.3995   41.7290   -4.1328 C   0  0  0  0  0  0
  -11.9561   37.1552   -3.3836 N   0  0  0  0  0  0
   -2.0902   41.9638   -7.1967 O   0  5  0  0  0  0
   -2.4258   46.0530  -10.1907 O   0  0  0  0  0  0
   -8.7370   40.4220   -3.8084 C   0  0  0  0  0  0
  -12.1928   37.7310   -2.1945 C   0  0  0  0  0  0
   -3.8908   41.4281   -9.0091 O   0  0  0  0  0  0
   -3.6804   45.7514   -7.9968 O   0  5  0  0  0  0
   -7.9923   39.3652   -4.3337 N   0  3  0  0  0  0
  -11.2225   38.3946   -1.5508 N   0  0  0  0  0  0
   -2.6538   43.7039   -9.1341 O   0  0  0  0  0  0
   -4.6744   44.9475  -10.1850 O   0  0  0  0  0  0
   -6.9187   39.6293   -5.1910 C   0  0  0  0  0  0
   -9.9995   38.4947   -2.0842 C   0  0  0  0  0  0
   -9.0409   39.1567   -1.4357 N   0  0  0  0  0  0
   -6.5766   40.9433   -5.5146 C   0  0  0  0  0  0
   -9.7289   37.9041   -3.3129 C   0  0  0  0  0  0
   -7.3299   41.9831   -4.9813 C   0  0  0  0  0  0
  -10.7625   37.2255   -3.9492 C   0  0  0  0  0  0
   -8.3598   37.9724   -3.9919 C   0  0  0  0  0  0
  1 13  1  0  0  0
  3  4  1  0  0  0
  4  5  1  0  0  0
  5  6  1  0  0  0
  6 10  1  0  0  0
  6 14  2  0  0  0
  6 18  1  0  0  0
  7 11  1  0  0  0
  7 15  1  0  0  0
  7 19  2  0  0  0
  8 25  4  0  0  0
  9 26  4  0  0  0
  8 12  4  0  0  0
  9 13  4  0  0  0
 13 17  4  0  0  0
 12 16  4  0  0  0
 16 20  4  0  0  0
  7 18  1  0  0  0
  2 20  1  0  0  0
 17 21  4  0  0  0
 21 22  1  0  0  0
  3 23  1  0  0  0
 20 23  4  0  0  0
 21 24  4  0  0  0
 24 27  1  0  0  0
 23 25  4  0  0  0
 24 26  4  0  0  0
 16 27  1  0  0  0
M  END
>  <CHROM.0>
-48.08414015,-93.80305887,-169.98513942,56.35230266,-60.53038193,42.04533027
164.77821470

>  <CHROM.1>
152.06473398,46.67095028,-102.19258212,-14.37017565,167.34166159,163.02109115
-63.42973631,12.01207073,-6.54099472,41.25538959,-5.95485035,2.40869319,-0.50441319
2.83522507

>  <Name>
3D2V-native-protonated

>  <RI>
369

>  <Rbt.Current_Directory>
/home/filips/IIMCB/fingernat/jonowe-i-woda

>  <Rbt.Executable>
rbdock/0.1.0

>  <Rbt.Library>
librxdock.so/0.1.0

>  <Rbt.Parameter_File>
/home/filips/miniconda2/envs/docking-rdock/share/rxdock-2013.1.1_148c5bd1-1/data/scripts/dock_solv.prm

>  <Rbt.Receptor>
system.prm

>  <SCORE>
-54.3133

>  <SCORE.INTER>
-28.3099

>  <SCORE.INTER.CONST>
1

>  <SCORE.INTER.POLAR>
-3.67912

>  <SCORE.INTER.ROT>
8

>  <SCORE.INTER.SOLV>
43.8141

>  <SCORE.INTER.VDW>
-30.1476

>  <SCORE.INTER.norm>
-1.04852

>  <SCORE.INTRA>
8.62171

>  <SCORE.INTRA.DIHEDRAL>
4.39993

>  <SCORE.INTRA.DIHEDRAL.0>
8.28871

>  <SCORE.INTRA.POLAR>
0

>  <SCORE.INTRA.POLAR.0>
0

>  <SCORE.INTRA.REPUL>
0

>  <SCORE.INTRA.REPUL.0>
0

>  <SCORE.INTRA.SOLV>
3.8403

>  <SCORE.INTRA.SOLV.lig_0>
-83.647

>  <SCORE.INTRA.VDW>
4.50159

>  <SCORE.INTRA.VDW.0>
-3.29555

>  <SCORE.INTRA.norm>
0.319323

>  <SCORE.RESTR>
0

>  <SCORE.RESTR.CAVITY>
0

>  <SCORE.RESTR.norm>
0

>  <SCORE.SYSTEM>
-34.6251

>  <SCORE.SYSTEM.CONST>
0

>  <SCORE.SYSTEM.DIHEDRAL>
8.94245

>  <SCORE.SYSTEM.POLAR>
-6.61256

>  <SCORE.SYSTEM.SOLV>
-0.157525

>  <SCORE.SYSTEM.VDW>
-3.96988

>  <SCORE.SYSTEM.norm>
-1.28241

>  <SCORE.heavy>
27

>  <SCORE.norm>
-2.01161

$$$$
3D2V-native-protonated
  RxDock  02152114193D
librxdock.so/0.1.0
 27 28  0  0  0  0  0  0  0  0999 V2000
  -12.8978   37.6091   -1.9943 C   0  0  0  0  0  0
   -5.9632   38.4231   -5.0118 C   0  0  0  0  0  0
   -5.5839   40.6109   -7.0677 C   0  0  0  0  0  0
   -6.0597   41.6718   -8.0563 C   0  0  0  0  0  0
   -5.2333   42.8406   -7.9792 O   0  0  0  0  0  0
   -3.6366   42.7161   -7.9895 P   0  0  0  0  0  0
   -3.8217   45.0666   -9.6278 P   0  0  0  0  0  0
   -7.4346   42.4100   -4.2850 C   0  0  0  0  0  0
  -10.7281   38.4314   -1.0951 N   0  0  0  0  0  0
   -3.0506   42.4165   -6.5308 O   0  5  0  0  0  0
   -5.2698   44.7965   -9.7388 O   0  0  0  0  0  0
   -7.6206   41.4198   -3.3298 C   0  0  0  0  0  0
  -11.4268   37.9947   -2.1547 C   0  0  0  0  0  0
   -3.0810   41.5729   -9.0008 O   0  0  0  0  0  0
   -3.0797   44.8120  -11.0355 O   0  5  0  0  0  0
   -7.1387   40.1319   -3.5665 N   0  3  0  0  0  0
  -10.8487   37.8911   -3.3594 N   0  0  0  0  0  0
   -3.0610   44.1302   -8.5709 O   0  0  0  0  0  0
   -3.5650   46.5748   -9.2806 O   0  0  0  0  0  0
   -6.4815   39.8449   -4.7678 C   0  0  0  0  0  0
   -9.5628   38.2215   -3.5260 C   0  0  0  0  0  0
   -8.9970   38.1153   -4.7286 N   0  0  0  0  0  0
   -6.2909   40.8408   -5.7270 C   0  0  0  0  0  0
   -8.8193   38.6796   -2.4446 C   0  0  0  0  0  0
   -6.7777   42.1181   -5.4733 C   0  0  0  0  0  0
   -9.4553   38.7718   -1.2114 C   0  0  0  0  0  0
   -7.3457   39.0765   -2.5491 C   0  0  0  0  0  0
  1 13  1  0  0  0
  3  4  1  0  0  0
  4  5  1  0  0  0
  5  6  1  0  0  0
  6 10  1  0  0  0
  6 14  2  0  0  0
  6 18  1  0  0  0
  7 11  1  0  0  0
  7 15  1  0  0  0
  7 19  2  0  0  0
  8 25  4  0  0  0
  9 26  4  0  0  0
  8 12  4  0  0  0
  9 13  4  0  0  0
 13 17  4  0  0  0
 12 16  4  0  0  0
 16 20  4  0  0  0
  7 18  1  0  0  0
  2 20  1  0  0  0
 17 21  4  0  0  0
 21 22  1  0  0  0
  3 23  1  0  0  0
 20 23  4  0  0  0
 21 24  4  0  0  0
 24 27  1  0  0  0
 23 25  4  0  0  0
 24 26  4  0  0  0
 16 27  1  0  0  0
M  END
>  <CHROM.0>
-55.50144113,-84.92594601,-72.04006502,-42.62300965,-56.26516016,-59.75956125
-61.35380910

>  <CHROM.1>
88.99661256,47.76764868,-83.98083432,-30.33339998,18.36838565,156.35753975
56.84594878,69.33620786,-6.38155619,41.37077195,-6.01395646,2.24070479,-0.36235197
2.56148868

>  <Name>
3D2V-native-protonated

>  <RI>
369

>  <Rbt.Current_Directory>
/home/filips/IIMCB/fingernat/jonowe-i-woda

>  <Rbt.Executable>
rbdock/0.1.0

>  <Rbt.Library>
librxdock.so/0.1.0

>  <Rbt.Parameter_File>
/home/filips/miniconda2/envs/docking-rdock/share/rxdock-2013.1.1_148c5bd1-1/data/scripts/dock_solv.prm

>  <Rbt.Receptor>
system.prm

>  <SCORE>
-82.886

>  <SCORE.INTER>
-56.4223

>  <SCORE.INTER.CONST>
1

>  <SCORE.INTER.POLAR>
-7.38331

>  <SCORE.INTER.ROT>
8

>  <SCORE.INTER.SOLV>
44.2638

>  <SCORE.INTER.VDW>
-36.6917

>  <SCORE.INTER.norm>
-2.08971

>  <SCORE.INTRA>
5.55397

>  <SCORE.INTRA.DIHEDRAL>
4.01486

>  <SCORE.INTRA.DIHEDRAL.0>
8.28871

>  <SCORE.INTRA.POLAR>
0

>  <SCORE.INTRA.POLAR.0>
0

>  <SCORE.INTRA.REPUL>
0

>  <SCORE.INTRA.REPUL.0>
0

>  <SCORE.INTRA.SOLV>
2.63709

>  <SCORE.INTRA.SOLV.lig_0>
-83.647

>  <SCORE.INTRA.VDW>
2.228

>  <SCORE.INTRA.VDW.0>
-3.29555

>  <SCORE.INTRA.norm>
0.205703

>  <SCORE.RESTR>
0

>  <SCORE.RESTR.CAVITY>
0

>  <SCORE.RESTR.norm>
0

>  <SCORE.SYSTEM>
-32.0177

>  <SCORE.SYSTEM.CONST>
0

>  <SCORE.SYSTEM.DIHEDRAL>
5.9375

>  <SCORE.SYSTEM.POLAR>
-5.82415

>  <SCORE.SYSTEM.SOLV>
0.521181

>  <SCORE.SYSTEM.VDW>
-4.08417

>  <SCORE.SYSTEM.norm>
-1.18584

>  <SCORE.heavy>
27

>  <SCORE.norm>
-3.06985

$$$$
3D2V-native-protonated
  RxDock  02152114193D
librxdock.so/0.1.0
 27 28  0  0  0  0  0  0  0  0999 V2000
  -12.5873   37.6542   -2.4137 C   0  0  0  0  0  0
   -8.1836   41.2919   -3.8051 C   0  0  0  0  0  0
   -7.1475   42.0796   -6.5370 C   0  0  0  0  0  0
   -5.9818   42.8015   -7.2071 C   0  0  0  0  0  0
   -5.2995   41.9256   -8.1140 O   0  0  0  0  0  0
   -4.3612   42.5145   -9.2706 P   0  0  0  0  0  0
   -3.4157   45.1981   -9.6548 P   0  0  0  0  0  0
   -5.0055   39.0649   -5.6835 C   0  0  0  0  0  0
  -10.4788   38.3979   -1.3212 N   0  0  0  0  0  0
   -2.8273   42.1093   -9.0607 O   0  5  0  0  0  0
   -2.4944   44.7180  -10.7051 O   0  0  0  0  0  0
   -5.4652   38.6885   -4.4287 C   0  0  0  0  0  0
  -11.1006   38.0105   -2.4459 C   0  0  0  0  0  0
   -4.8046   42.0541  -10.7639 O   0  0  0  0  0  0
   -2.6166   45.5230   -8.2936 O   0  5  0  0  0  0
   -6.4973   39.4087   -3.8261 N   0  3  0  0  0  0
  -10.4316   37.9309   -3.6045 N   0  0  0  0  0  0
   -4.5457   44.1375   -9.2415 O   0  0  0  0  0  0
   -4.0881   46.5490  -10.0837 O   0  0  0  0  0  0
   -7.0538   40.5103   -4.4850 C   0  0  0  0  0  0
   -9.1300   38.2366   -3.6592 C   0  0  0  0  0  0
   -8.4735   38.1547   -4.8167 N   0  0  0  0  0  0
   -6.5946   40.8870   -5.7481 C   0  0  0  0  0  0
   -8.4648   38.6435   -2.5086 C   0  0  0  0  0  0
   -5.5658   40.1571   -6.3328 C   0  0  0  0  0  0
   -9.1940   38.7122   -1.3265 C   0  0  0  0  0  0
   -6.9797   39.0094   -2.4846 C   0  0  0  0  0  0
  1 13  1  0  0  0
  3  4  1  0  0  0
  4  5  1  0  0  0
  5  6  1  0  0  0
  6 10  1  0  0  0
  6 14  2  0  0  0
  6 18  1  0  0  0
  7 11  1  0  0  0
  7 15  1  0  0  0
  7 19  2  0  0  0
  8 25  4  0  0  0
  9 26  4  0  0  0
  8 12  4  0  0  0
  9 13  4  0  0  0
 13 17  4  0  0  0
 12 16  4  0  0  0
 16 20  4  0  0  0
  7 18  1  0  0  0
  2 20  1  0  0  0
 17 21  4  0  0  0
 21 22  1  0  0  0
  3 23  1  0  0  0
 20 23  4  0  0  0
 21 24  4  0  0  0
 24 27  1  0  0  0
 23 25  4  0  0  0
 24 26  4  0  0  0
 16 27  1  0  0  0
M  END
>  <CHROM.0>
-41.07621758,-82.22211280,-171.50155169,58.62510553,39.43903782,-81.42838759
-97.41008236

>  <CHROM.1>
60.74805274,160.54356129,114.99354350,149.68658231,31.31982291,139.53386755
23.11670737,-120.19525868,-6.28014994,41.31433826,-6.33164424,2.23567739
-0.47458407,2.62263008

>  <Name>
3D2V-native-protonated

>  <RI>
369

>  <Rbt.Current_Directory>
/home/filips/IIMCB/fingernat/jonowe-i-woda

>  <Rbt.Executable>
rbdock/0.1.0

>  <Rbt.Library>
librxdock.so/0.1.0

>  <Rbt.Parameter_File>
/home/filips/miniconda2/envs/docking-rdock/share/rxdock-2013.1.1_148c5bd1-1/data/scripts/dock_solv.prm

>  <Rbt.Receptor>
system.prm

>  <SCORE>
-58.2389

>  <SCORE.INTER>
-45.9091

>  <SCORE.INTER.CONST>
1

>  <SCORE.INTER.POLAR>
-6.12733

>  <SCORE.INTER.ROT>
8

>  <SCORE.INTER.SOLV>
44.2272

>  <SCORE.INTER.VDW>
-33.8574

>  <SCORE.INTER.norm>
-1.70034

>  <SCORE.INTRA>
6.69437

>  <SCORE.INTRA.DIHEDRAL>
3.27198

>  <SCORE.INTRA.DIHEDRAL.0>
8.28871

>  <SCORE.INTRA.POLAR>
0

>  <SCORE.INTRA.POLAR.0>
0

>  <SCORE.INTRA.REPUL>
0

>  <SCORE.INTRA.REPUL.0>
0

>  <SCORE.INTRA.SOLV>
3.40407

>  <SCORE.INTRA.SOLV.lig_0>
-83.647

>  <SCORE.INTRA.VDW>
3.35635

>  <SCORE.INTRA.VDW.0>
-3.29555

>  <SCORE.INTRA.norm>
0.24794

>  <SCORE.RESTR>
0

>  <SCORE.RESTR.CAVITY>
0

>  <SCORE.RESTR.norm>
0

>  <SCORE.SYSTEM>
-19.0242

>  <SCORE.SYSTEM.CONST>
0

>  <SCORE.SYSTEM.DIHEDRAL>
13.6848

>  <SCORE.SYSTEM.POLAR>
-8.04197

>  <SCORE.SYSTEM.SOLV>
-0.00363108

>  <SCORE.SYSTEM.VDW>
9.56339

>  <SCORE.SYSTEM.norm>
-0.704599

>  <SCORE.heavy>
27

>  <SCORE.norm>
-2.157

$$$$
fluoroligand-for_multipolar
  PyMOL2.6          3D                             0

 11 10  0  0  1  0  0  0  0  0999 V2000
   -8.3037    6.3568   -7.5886 C   0  0  0  0  0  0  0  0  0  0  0  0
   -8.1468    7.3198   -6.3892 C   0  0  2  0  0  0  0  0  0  0  0  0
   -9.4405    8.1116   -6.0893 C   0  0  0  0  0  0  0  0  0  0  0  0
   -7.1178    8.1996   -6.6387 F   0  0  0  0  0  0  0  0  0  0  0  0
   -9.0934    5.6298   -7.3881 H   0  0  0  0  0  0  0  0  0  0  0  0
   -8.5546    6.9102   -8.4959 H   0  0  0  0  0  0  0  0  0  0  0  0
   -7.3713    5.8141   -7.7578 H   0  0  0  0  0  0  0  0  0  0  0  0
   -7.8822    6.7351   -5.5042 H   0  0  0  0  0  0  0  0  0  0  0  0
   -9.2864    8.7702   -5.2320 H   0  0  0  0  0  0  0  0  0  0  0  0
  -10.2568    7.4256   -5.8537 H   0  0  0  0  0  0  0  0  0  0  0  0
   -9.7272    8.7201   -6.9493 H   0  0  0  0  0  0  0  0  0  0  0  0
  1  2  1  0  0  0  0
  1  5  1  0  0  0  0
  1  6  1  0  0  0  0
  1  7  1  0  0  0  0
  2  3  1  0  0  0  0
  2  4  1  0  0  0  0
  2  8  1  0  0  0  0
  3  9  1  0  0  0  0
  3 10  1  0  0  0  0
  3 11  1  0  0  0  0
M  END
$$$$
